Version 4
SHEET 1 1880 712
WIRE -896 -656 -1152 -656
WIRE -160 -656 -896 -656
WIRE 1056 -656 -160 -656
WIRE 1520 -656 1056 -656
WIRE -1152 -640 -1152 -656
WIRE -160 -608 -160 -656
WIRE -896 -592 -896 -656
WIRE 1520 -560 1520 -656
WIRE 1056 -544 1056 -656
WIRE 1056 -544 944 -544
WIRE 1296 -544 1056 -544
WIRE 1296 -480 1296 -544
WIRE -160 -448 -160 -528
WIRE -160 -448 -464 -448
WIRE 336 -448 -160 -448
WIRE 688 -448 336 -448
WIRE 688 -432 688 -448
WIRE 944 -432 944 -544
WIRE 1520 -416 1520 -480
WIRE -1152 -400 -1152 -560
WIRE -896 -400 -896 -528
WIRE -896 -400 -1152 -400
WIRE 480 -400 -896 -400
WIRE -464 -352 -464 -448
WIRE 1296 -336 1296 -400
WIRE 688 -320 688 -368
WIRE 800 -320 688 -320
WIRE -464 -240 -464 -272
WIRE 384 -240 -464 -240
WIRE -464 -208 -464 -240
WIRE 944 -176 944 -368
WIRE 1072 -176 944 -176
WIRE 1296 -176 1296 -256
WIRE 1296 -176 1072 -176
WIRE 64 112 64 64
WIRE 96 112 64 112
WIRE 336 112 336 -448
WIRE 336 112 320 112
WIRE -896 176 -896 -400
WIRE -464 176 -464 -128
WIRE -336 176 -464 176
WIRE 96 176 -336 176
WIRE 384 176 384 -240
WIRE 384 176 320 176
WIRE 96 240 -64 240
WIRE 624 240 320 240
WIRE 96 304 48 304
WIRE 480 304 480 -400
WIRE 480 304 320 304
WIRE 1072 352 1072 -176
WIRE 48 384 48 304
WIRE 336 384 336 112
WIRE 336 384 48 384
WIRE 1024 384 1072 352
WIRE -896 432 -896 256
WIRE -64 432 -64 240
WIRE 720 432 -64 432
WIRE 960 432 800 432
WIRE 1328 480 1024 480
WIRE -464 496 -464 176
WIRE -400 496 -464 496
WIRE -336 592 -336 176
WIRE 624 592 624 240
WIRE 624 592 -336 592
WIRE -400 624 -400 560
FLAG -896 432 0
FLAG -400 624 0
FLAG 1520 -416 0
FLAG 1328 480 0
FLAG 64 64 0
FLAG 800 -320 0
SYMBOL res -912 160 R0
SYMATTR InstName R1
SYMATTR Value 2.7k
SYMBOL res -480 -368 R0
SYMATTR InstName R2
SYMATTR Value 100k
SYMBOL res -480 -224 R0
SYMATTR InstName R3
SYMATTR Value 100k
SYMBOL polcap -912 -592 R0
SYMATTR InstName C1
SYMATTR Value 100µ
SYMBOL res -176 -624 R0
SYMATTR InstName R4
SYMATTR Value 1k
SYMBOL polcap -416 496 R0
SYMATTR InstName C2
SYMATTR Value 0.47µ
SYMBOL polcap 672 -432 R0
SYMATTR InstName C3
SYMATTR Value 0.47µ
SYMBOL res 816 416 R90
WINDOW 0 0 56 VBottom 2
WINDOW 3 32 56 VTop 2
SYMATTR InstName R5
SYMATTR Value 10k
SYMBOL npn2 960 384 R0
SYMATTR InstName Q1
SYMATTR Value 2N2222
SYMBOL voltage 1520 -576 R0
WINDOW 123 0 0 Left 0
WINDOW 39 0 0 Left 0
SYMATTR InstName V1
SYMATTR Value 12
SYMBOL diode 960 -368 R180
WINDOW 0 24 64 Left 2
WINDOW 3 24 0 Left 2
SYMATTR InstName D2
SYMATTR Value 1N914
SYMBOL res -1168 -656 R0
WINDOW 3 36 68 Left 2
SYMATTR InstName R6
SYMATTR Value {R6*exp(B*(1/(TEMP+TK)-1/(T6+TK)))}
SYMATTR SpiceLine tol=1 pwr=0.1
SYMBOL SBORKA\\TIMER\\555 208 208 R0
SYMATTR InstName U1
SYMBOL ind 1280 -496 R0
SYMATTR InstName L1
SYMATTR Value 1m
SYMBOL res 1280 -352 R0
SYMATTR InstName R7
SYMATTR Value 100
TEXT -1168 696 Left 2 !.tran 1
TEXT -1256 -328 Left 2 !.step param TEMP list 25 50 75
TEXT -1416 -600 Left 2 !.param R6=10k\n.param B=4000\n.param Tk=273.15\n.param T6=25
